Version 4
SHEET 1 880 680
WIRE -624 112 -656 112
WIRE -480 112 -560 112
WIRE -112 144 -144 144
WIRE 16 144 -48 144
WIRE -992 208 -992 176
WIRE -656 208 -656 112
WIRE -624 208 -656 208
WIRE -480 208 -480 112
WIRE -480 208 -544 208
WIRE -144 224 -144 144
WIRE -128 224 -144 224
WIRE 16 224 16 144
WIRE 16 224 -48 224
WIRE -656 288 -656 208
WIRE -656 288 -688 288
WIRE -624 288 -656 288
WIRE -480 304 -480 208
WIRE -480 304 -560 304
WIRE -240 304 -304 304
WIRE -144 304 -144 224
WIRE -144 304 -176 304
WIRE -128 304 -144 304
WIRE -992 320 -992 288
WIRE 16 320 16 224
WIRE 16 320 -64 320
WIRE -512 528 -528 528
WIRE -384 528 -432 528
WIRE -624 592 -688 592
WIRE -528 592 -528 528
WIRE -528 592 -560 592
WIRE -512 592 -528 592
WIRE -384 608 -384 528
WIRE -384 608 -448 608
FLAG -992 320 0
FLAG -992 176 VCC
SYMBOL voltage -992 192 R0
SYMATTR InstName V1
SYMBOL Opamps\\TL072 -592 240 R0
SYMATTR InstName U1
SYMBOL Opamps\\TL072 -96 256 R0
SYMATTR InstName U2
SYMBOL Opamps\\TL072 -480 544 R0
SYMATTR InstName U3
SYMBOL res -528 192 R90
WINDOW 0 0 56 VBottom 2
WINDOW 3 32 56 VTop 2
SYMATTR InstName R1
SYMBOL res -672 272 R90
WINDOW 0 0 56 VBottom 2
WINDOW 3 32 56 VTop 2
SYMATTR InstName R2
SYMBOL res -32 208 R90
WINDOW 0 0 56 VBottom 2
WINDOW 3 32 56 VTop 2
SYMATTR InstName R3
SYMBOL res -288 288 R90
WINDOW 0 0 56 VBottom 2
WINDOW 3 32 56 VTop 2
SYMATTR InstName R4
SYMBOL res -416 512 R90
WINDOW 0 0 56 VBottom 2
WINDOW 3 32 56 VTop 2
SYMATTR InstName R5
SYMBOL res -672 576 R90
WINDOW 0 0 56 VBottom 2
WINDOW 3 32 56 VTop 2
SYMATTR InstName R6
SYMBOL cap -560 96 R90
WINDOW 0 0 32 VBottom 2
WINDOW 3 32 32 VTop 2
SYMATTR InstName C1
SYMBOL cap -176 288 R90
WINDOW 0 0 32 VBottom 2
WINDOW 3 32 32 VTop 2
SYMATTR InstName C2
SYMBOL cap -48 128 R90
WINDOW 0 0 32 VBottom 2
WINDOW 3 32 32 VTop 2
SYMATTR InstName C3
SYMBOL cap -560 576 R90
WINDOW 0 0 32 VBottom 2
WINDOW 3 32 32 VTop 2
SYMATTR InstName C4
TEXT -608 24 Left 2 ;LPF
TEXT -104 64 Left 2 ;BPF
TEXT -576 448 Left 2 ;HPF
